   31
scf done:  -709.594226
 O    -2.871019    -0.351487     1.264974
 C    -2.933676    -0.659961    -0.024826
 C    -2.120789    -0.110183    -0.956020
 C    -1.116563     0.840143    -0.561848
 N    -0.934723     1.274299     0.632534
 C     0.279321     2.087152     0.624020
 H     0.094203     3.035895     1.127776
 C     1.421650     1.364651     1.363131
 C     1.835665     0.074796     0.706771
 C     1.076063    -1.084489     0.863412
 C     1.433215    -2.258525     0.217318
 C     2.560059    -2.296681    -0.593066
 C     3.331070    -1.154300    -0.747603
 C     2.969068     0.019392    -0.100963
 H     3.582264     0.905710    -0.217299
 H     4.216514    -1.176073    -1.368844
 H     2.838456    -3.213126    -1.095630
 H     0.830574    -3.147263     0.349579
 H     0.196356    -1.061682     1.494173
 H     2.276706     2.041775     1.418465
 H     1.084062     1.177673     2.383636
 C     0.536488     2.296318    -0.878854
 H     1.569487     2.129465    -1.176146
 H     0.205328     3.276027    -1.223596
 O    -0.278268     1.299750    -1.513302
 H    -2.198344    -0.387562    -1.993584
 C    -3.984551    -1.669108    -0.337474
 H    -4.005660    -1.902267    -1.398166
 H    -4.958057    -1.287734    -0.028163
 H    -3.794745    -2.579099     0.232482
 H    -2.156321     0.332645     1.383125
