   34
scf done:  -748.911474
 O     2.847136     1.863551     0.466672
 C     3.549914     0.868949    -0.057811
 C     3.025011    -0.351116    -0.318895
 C     1.645030    -0.621025    -0.018737
 N     0.815535     0.228702     0.472016
 C    -0.430745    -0.484519     0.729374
 C    -1.673361     0.304855     0.411722
 C    -1.653306     1.357648    -0.495750
 C    -2.823643     2.032354    -0.814537
 C    -4.026901     1.661621    -0.230457
 C    -4.052857     0.618383     0.685029
 C    -2.880797    -0.050594     1.006331
 H    -2.900579    -0.852301     1.735834
 H    -4.983737     0.331979     1.155949
 H    -4.937744     2.189370    -0.478883
 H    -2.794987     2.852912    -1.519066
 H    -0.711247     1.650119    -0.940582
 H    -0.463795    -0.747327     1.793393
 C    -0.266086    -1.797550    -0.096824
 C    -0.858200    -1.717015    -1.493190
 H    -0.551363    -2.592598    -2.064091
 H    -0.507915    -0.821567    -2.007120
 H    -1.946236    -1.681855    -1.449209
 C    -0.725991    -3.032527     0.644929
 H    -0.222382    -3.111132     1.607549
 H    -1.802447    -2.977749     0.813000
 H    -0.515059    -3.929294     0.063027
 O     1.178286    -1.862234    -0.253821
 H     3.627942    -1.133096    -0.748640
 C     4.969302     1.231907    -0.330578
 H     5.447819     1.544776     0.597845
 H     5.002458     2.079050    -1.016171
 H     5.516412     0.396507    -0.757988
 H     1.918583     1.538709     0.623492
